Circuit: * C:\Users\SuriT\OneDrive\Documents\LTspiceXVII\Lab_AB.asc

Warning: Multiple definitions of model "2n4125" Type: BJT
Direct Newton iteration failed to find .op point.  (Use ".option noopiter" to skip.)
Starting Gmin stepping
Gmin = 10
Gmin = 1.07374
Gmin = 0.115292
Gmin = 0.0123794
Gmin = 0.00132923
Gmin = 0.000142725
Gmin = 1.5325e-005
vernier = 0.5
vernier = 0.25
vernier = 0.125
Gmin = 6.97456e-006
vernier = 0.0625
vernier = 0.0833333
Gmin = 5.94334e-006
vernier = 0.111111
vernier = 0.148148
Gmin = 4.49922e-006
vernier = 0.197531
Gmin = 2.91311e-006
vernier = 0.263374
vernier = 0.351165
Gmin = 1.4191e-006
vernier = 0.46822
vernier = 0.624294
Gmin = 4.61853e-007
vernier = 0.832392
Gmin = 8.31666e-008
vernier = 1
Gmin = 8.92995e-009
Gmin = 9.58846e-010
Gmin = 1.02955e-010
Gmin = 1.10547e-011
Gmin = 1.18699e-012
Gmin = 1.27453e-013
Gmin = 0
Gmin stepping succeeded in finding the operating point.


Date: Wed Feb 08 02:05:47 2023
Total elapsed time: 0.791 seconds.

tnom = 27
temp = 27
method = Gear
totiter = 39476
traniter = 38236
tranpoints = 15100
accept = 10457
rejected = 4643
matrix size = 109
fillins = 175
solver = Normal
Thread vector: 5.1/3.8[2] 2.4/2.1[2] 0.9/1.3[1] 0.3/0.7[1]  2592/500
Matrix Compiler1:    1081 opcodes  3.0/[1.0]/1.2
Matrix Compiler2: 13.19 KB object code size  0.9/1.0/[0.7]

